MODEL 1
REMARK VINA RESULT:   -8.6      0.000      0.000
REMARK  Name = amoxicillin
REMARK  5 active torsions:
ROOT
ATOM      1  C   UNL     1      -2.890   1.678   0.456  1.00  0.00     0.162 C 
ATOM      2  N   UNL     1      -1.668   1.011  -0.234  1.00  0.00    -0.346 N 
ATOM      3  C   UNL     1      -0.446   1.678   0.456  1.00  0.00     0.254 C 
ATOM      4  O   UNL     1      -0.446   2.789   1.011  1.00  0.00    -0.268 OA
ATOM      5  C   UNL     1       0.776   1.011  -0.234  1.00  0.00     0.162 C 
ATOM      6  C   UNL     1       0.776  -0.456  -0.678  1.00  0.00     0.162 C 
ATOM      7  S   UNL     1      -0.668  -1.234   0.123  1.00  0.00    -0.089 SA
ATOM      8  C   UNL     1      -1.890  -0.456  -0.678  1.00  0.00     0.162 C 
ATOM      9  C   UNL     1       1.998   1.678   0.456  1.00  0.00     0.270 C 
ATOM     10  O   UNL     1       1.998   2.789   1.011  1.00  0.00    -0.266 OA
ATOM     11  O   UNL     1       3.220   1.011  -0.234  1.00  0.00    -0.320 OA
ATOM     12  N   UNL     1      -4.112   1.011  -0.234  1.00  0.00    -0.281 N 
ATOM     13  C   UNL     1      -5.334   1.678   0.456  1.00  0.00     0.062 C 
ENDROOT
TORSDOF 5
ENDMDL
MODEL 2
REMARK VINA RESULT:   -8.1      1.789      3.567
REMARK  Name = amoxicillin
ROOT
ATOM      1  C   UNL     1      -3.001   1.789   0.567  1.00  0.00     0.162 C 
ATOM      2  N   UNL     1      -1.779   1.122  -0.345  1.00  0.00    -0.346 N 
ATOM      3  C   UNL     1      -0.557   1.789   0.567  1.00  0.00     0.254 C 
ATOM      4  O   UNL     1      -0.557   2.900   1.122  1.00  0.00    -0.268 OA
ATOM      5  C   UNL     1       0.665   1.122  -0.345  1.00  0.00     0.162 C 
ATOM      6  C   UNL     1       0.665  -0.567  -0.789  1.00  0.00     0.162 C 
ATOM      7  S   UNL     1      -0.779  -1.345   0.234  1.00  0.00    -0.089 SA
ATOM      8  C   UNL     1      -2.001  -0.567  -0.789  1.00  0.00     0.162 C 
ATOM      9  C   UNL     1       1.887   1.789   0.567  1.00  0.00     0.270 C 
ATOM     10  O   UNL     1       1.887   2.900   1.122  1.00  0.00    -0.266 OA
ATOM     11  O   UNL     1       3.109   1.122  -0.345  1.00  0.00    -0.320 OA
ATOM     12  N   UNL     1      -4.223   1.122  -0.345  1.00  0.00    -0.281 N 
ATOM     13  C   UNL     1      -5.445   1.789   0.567  1.00  0.00     0.062 C 
ENDROOT
TORSDOF 5
ENDMDL
