MODEL 1
REMARK VINA RESULT:   -7.2      0.000      0.000
REMARK  Name = aspirin
REMARK  9 active torsions:
REMARK  status: ('A' for Active; 'I' for Inactive)
REMARK    1  A    between atoms: C_2  and  C_3
REMARK    2  A    between atoms: C_3  and  C_4
REMARK    3  A    between atoms: C_4  and  O_5
ROOT
ATOM      1  C   UNL     1      -2.456   1.234   0.123  1.00  0.00     0.076 C 
ATOM      2  C   UNL     1      -1.234   0.567  -0.234  1.00  0.00     0.040 C 
ATOM      3  C   UNL     1      -0.012   1.234   0.123  1.00  0.00     0.026 C 
ATOM      4  C   UNL     1       0.012   2.567   0.789  1.00  0.00     0.002 C 
ATOM      5  C   UNL     1      -1.210   3.234   1.146  1.00  0.00     0.002 C 
ATOM      6  C   UNL     1      -2.432   2.567   0.789  1.00  0.00     0.026 C 
ATOM      7  C   UNL     1       1.234   0.567  -0.234  1.00  0.00     0.270 C 
ATOM      8  O   UNL     1       1.234  -0.567  -0.789  1.00  0.00    -0.266 OA
ATOM      9  O   UNL     1       2.456   1.234   0.123  1.00  0.00    -0.320 OA
ATOM     10  C   UNL     1       3.678   0.567  -0.234  1.00  0.00     0.213 C 
ENDROOT
TORSDOF 3
ENDMDL
MODEL 2
REMARK VINA RESULT:   -6.8      1.234      2.456
REMARK  Name = aspirin
REMARK  9 active torsions:
ROOT
ATOM      1  C   UNL     1      -2.567   1.345   0.234  1.00  0.00     0.076 C 
ATOM      2  C   UNL     1      -1.345   0.678  -0.345  1.00  0.00     0.040 C 
ATOM      3  C   UNL     1      -0.123   1.345   0.234  1.00  0.00     0.026 C 
ATOM      4  C   UNL     1       0.123   2.678   0.900  1.00  0.00     0.002 C 
ATOM      5  C   UNL     1      -1.099   3.345   1.479  1.00  0.00     0.002 C 
ATOM      6  C   UNL     1      -2.321   2.678   0.900  1.00  0.00     0.026 C 
ATOM      7  C   UNL     1       1.345   0.678  -0.345  1.00  0.00     0.270 C 
ATOM      8  O   UNL     1       1.345  -0.678  -0.900  1.00  0.00    -0.266 OA
ATOM      9  O   UNL     1       2.567   1.345   0.234  1.00  0.00    -0.320 OA
ATOM     10  C   UNL     1       3.789   0.678  -0.345  1.00  0.00     0.213 C 
ENDROOT
TORSDOF 3
ENDMDL
