MODEL 1
REMARK VINA RESULT:  -10.8      0.000      0.000
REMARK  Name = atorvastatin
REMARK  8 active torsions:
ROOT
ATOM      1  C   UNL     1      -3.890   2.234   0.678  1.00  0.00     0.076 C 
ATOM      2  C   UNL     1      -2.668   1.567  -0.345  1.00  0.00     0.040 C 
ATOM      3  C   UNL     1      -1.446   2.234   0.678  1.00  0.00     0.026 C 
ATOM      4  C   UNL     1      -1.446   3.567   1.701  1.00  0.00     0.002 C 
ATOM      5  C   UNL     1      -2.668   4.234   2.724  1.00  0.00     0.002 C 
ATOM      6  C   UNL     1      -3.890   3.567   1.701  1.00  0.00     0.026 C 
ATOM      7  C   UNL     1      -0.224   1.567  -0.345  1.00  0.00     0.162 C 
ATOM      8  N   UNL     1       0.998   2.234   0.678  1.00  0.00    -0.346 N 
ATOM      9  C   UNL     1       2.220   1.567  -0.345  1.00  0.00     0.254 C 
ATOM     10  O   UNL     1       2.220   0.345  -0.890  1.00  0.00    -0.268 OA
ATOM     11  C   UNL     1       3.442   2.234   0.678  1.00  0.00     0.162 C 
ATOM     12  C   UNL     1       4.664   1.567  -0.345  1.00  0.00     0.270 C 
ATOM     13  O   UNL     1       4.664   0.345  -0.890  1.00  0.00    -0.266 OA
ATOM     14  O   UNL     1       5.886   2.234   0.678  1.00  0.00    -0.320 OA
ATOM     15  C   UNL     1      -0.224   0.234  -1.012  1.00  0.00     0.077 C 
ENDROOT
TORSDOF 8
ENDMDL
MODEL 2
REMARK VINA RESULT:  -10.1      2.123      4.890
REMARK  Name = atorvastatin
ROOT
ATOM      1  C   UNL     1      -4.001   2.345   0.789  1.00  0.00     0.076 C 
ATOM      2  C   UNL     1      -2.779   1.678  -0.456  1.00  0.00     0.040 C 
ATOM      3  C   UNL     1      -1.557   2.345   0.789  1.00  0.00     0.026 C 
ATOM      4  C   UNL     1      -1.557   3.678   2.034  1.00  0.00     0.002 C 
ATOM      5  C   UNL     1      -2.779   4.345   3.279  1.00  0.00     0.002 C 
ATOM      6  C   UNL     1      -4.001   3.678   2.034  1.00  0.00     0.026 C 
ATOM      7  C   UNL     1      -0.335   1.678  -0.456  1.00  0.00     0.162 C 
ATOM      8  N   UNL     1       0.887   2.345   0.789  1.00  0.00    -0.346 N 
ATOM      9  C   UNL     1       2.109   1.678  -0.456  1.00  0.00     0.254 C 
ATOM     10  O   UNL     1       2.109   0.456  -1.001  1.00  0.00    -0.268 OA
ATOM     11  C   UNL     1       3.331   2.345   0.789  1.00  0.00     0.162 C 
ATOM     12  C   UNL     1       4.553   1.678  -0.456  1.00  0.00     0.270 C 
ATOM     13  O   UNL     1       4.553   0.456  -1.001  1.00  0.00    -0.266 OA
ATOM     14  O   UNL     1       5.775   2.345   0.789  1.00  0.00    -0.320 OA
ATOM     15  C   UNL     1      -0.335   0.345  -1.123  1.00  0.00     0.077 C 
ENDROOT
TORSDOF 8
ENDMDL
