MODEL 1
REMARK VINA RESULT:   -6.3      0.000      0.000
REMARK  Name = caffeine
REMARK  0 active torsions:
REMARK  status: ('A' for Active; 'I' for Inactive)
ROOT
ATOM      1  N   UNL     1      -1.234   0.567   0.123  1.00  0.00    -0.281 N 
ATOM      2  C   UNL     1      -2.456   1.234  -0.234  1.00  0.00     0.233 C 
ATOM      3  O   UNL     1      -3.567   0.789  -0.567  1.00  0.00    -0.274 OA
ATOM      4  C   UNL     1      -2.234   2.678  -0.123  1.00  0.00     0.119 C 
ATOM      5  N   UNL     1      -1.012   3.234   0.234  1.00  0.00    -0.343 N 
ATOM      6  C   UNL     1       0.123   2.456   0.567  1.00  0.00     0.254 C 
ATOM      7  O   UNL     1       1.234   2.900   0.900  1.00  0.00    -0.268 OA
ATOM      8  C   UNL     1       0.012   1.012   0.456  1.00  0.00     0.127 C 
ATOM      9  N   UNL     1       1.123   0.234   0.789  1.00  0.00    -0.281 N 
ATOM     10  C   UNL     1       0.901  -1.123   0.678  1.00  0.00     0.233 C 
ATOM     11  O   UNL     1       1.789  -1.900   1.011  1.00  0.00    -0.274 OA
ATOM     12  C   UNL     1      -0.456  -1.567   0.123  1.00  0.00     0.119 C 
ATOM     13  N   UNL     1      -1.456  -0.789  -0.234  1.00  0.00    -0.343 N 
ATOM     14  C   UNL     1       2.456   0.789   1.234  1.00  0.00     0.062 C 
ATOM     15  C   UNL     1      -0.901   4.678   0.345  1.00  0.00     0.062 C 
ATOM     16  C   UNL     1      -2.789  -1.345  -0.789  1.00  0.00     0.062 C 
ENDROOT
TORSDOF 0
ENDMDL
