MODEL 1
REMARK VINA RESULT:   -8.9      0.000      0.000
REMARK  Name = ibuprofen
REMARK  6 active torsions:
REMARK  status: ('A' for Active; 'I' for Inactive)
ROOT
ATOM      1  C   UNL     1      -3.456   2.123   0.456  1.00  0.00     0.076 C 
ATOM      2  C   UNL     1      -2.234   1.456  -0.123  1.00  0.00     0.040 C 
ATOM      3  C   UNL     1      -1.012   2.123   0.456  1.00  0.00     0.026 C 
ATOM      4  C   UNL     1      -1.012   3.456   1.145  1.00  0.00     0.002 C 
ATOM      5  C   UNL     1      -2.234   4.123   1.724  1.00  0.00     0.002 C 
ATOM      6  C   UNL     1      -3.456   3.456   1.145  1.00  0.00     0.026 C 
ATOM      7  C   UNL     1       0.234   1.456  -0.123  1.00  0.00     0.162 C 
ATOM      8  C   UNL     1       1.456   2.123   0.456  1.00  0.00     0.077 C 
ATOM      9  C   UNL     1       0.234   0.123  -0.812  1.00  0.00     0.077 C 
ATOM     10  C   UNL     1       2.678   1.456  -0.123  1.00  0.00     0.270 C 
ATOM     11  O   UNL     1       2.678   0.234  -0.812  1.00  0.00    -0.266 OA
ATOM     12  O   UNL     1       3.900   2.123   0.456  1.00  0.00    -0.320 OA
ENDROOT
TORSDOF 6
ENDMDL
MODEL 2
REMARK VINA RESULT:   -8.4      1.567      3.234
REMARK  Name = ibuprofen
ROOT
ATOM      1  C   UNL     1      -3.567   2.234   0.567  1.00  0.00     0.076 C 
ATOM      2  C   UNL     1      -2.345   1.567  -0.234  1.00  0.00     0.040 C 
ATOM      3  C   UNL     1      -1.123   2.234   0.567  1.00  0.00     0.026 C 
ATOM      4  C   UNL     1      -1.123   3.567   1.256  1.00  0.00     0.002 C 
ATOM      5  C   UNL     1      -2.345   4.234   2.057  1.00  0.00     0.002 C 
ATOM      6  C   UNL     1      -3.567   3.567   1.256  1.00  0.00     0.026 C 
ATOM      7  C   UNL     1       0.345   1.567  -0.234  1.00  0.00     0.162 C 
ATOM      8  C   UNL     1       1.567   2.234   0.567  1.00  0.00     0.077 C 
ATOM      9  C   UNL     1       0.345   0.234  -0.923  1.00  0.00     0.077 C 
ATOM     10  C   UNL     1       2.789   1.567  -0.234  1.00  0.00     0.270 C 
ATOM     11  O   UNL     1       2.789   0.345  -0.923  1.00  0.00    -0.266 OA
ATOM     12  O   UNL     1       4.011   2.234   0.567  1.00  0.00    -0.320 OA
ENDROOT
TORSDOF 6
ENDMDL
