MODEL 1
REMARK VINA RESULT:   -9.3      0.000      0.000
REMARK  Name = lisinopril
REMARK  10 active torsions:
ROOT
ATOM      1  C   UNL     1      -3.567   1.890   0.567  1.00  0.00     0.162 C 
ATOM      2  N   UNL     1      -2.345   1.223  -0.234  1.00  0.00    -0.346 N 
ATOM      3  C   UNL     1      -1.123   1.890   0.567  1.00  0.00     0.254 C 
ATOM      4  O   UNL     1      -1.123   3.001   1.123  1.00  0.00    -0.268 OA
ATOM      5  C   UNL     1       0.099   1.223  -0.234  1.00  0.00     0.162 C 
ATOM      6  C   UNL     1       1.321   1.890   0.567  1.00  0.00     0.077 C 
ATOM      7  C   UNL     1       0.099  -0.234  -0.790  1.00  0.00     0.077 C 
ATOM      8  C   UNL     1       2.543   1.223  -0.234  1.00  0.00     0.270 C 
ATOM      9  O   UNL     1       2.543   0.001  -0.790  1.00  0.00    -0.266 OA
ATOM     10  O   UNL     1       3.765   1.890   0.567  1.00  0.00    -0.320 OA
ATOM     11  C   UNL     1      -3.567   3.334   1.012  1.00  0.00     0.077 C 
ATOM     12  C   UNL     1      -4.789   1.223  -0.234  1.00  0.00     0.077 C 
ENDROOT
TORSDOF 10
ENDMDL
