MODEL 1
REMARK VINA RESULT:   -5.8      0.000      0.000
REMARK  Name = metformin
REMARK  2 active torsions:
ROOT
ATOM      1  N   UNL     1      -1.456   0.678   0.234  1.00  0.00    -0.346 N 
ATOM      2  C   UNL     1      -0.234   1.345  -0.123  1.00  0.00     0.327 C 
ATOM      3  N   UNL     1       0.901   0.678   0.234  1.00  0.00    -0.278 N 
ATOM      4  N   UNL     1      -0.234   2.567  -0.789  1.00  0.00    -0.346 N 
ATOM      5  C   UNL     1       2.123   1.345  -0.123  1.00  0.00     0.327 C 
ATOM      6  N   UNL     1       3.234   0.678   0.234  1.00  0.00    -0.278 N 
ATOM      7  N   UNL     1       2.123   2.567  -0.789  1.00  0.00    -0.346 N 
ATOM      8  C   UNL     1      -2.678   1.345  -0.123  1.00  0.00     0.062 C 
ATOM      9  C   UNL     1       0.901  -0.678   0.901  1.00  0.00     0.062 C 
ATOM     10  C   UNL     1       4.456   1.345  -0.123  1.00  0.00     0.062 C 
ENDROOT
TORSDOF 2
ENDMDL
MODEL 2
REMARK VINA RESULT:   -5.3      1.234      2.567
REMARK  Name = metformin
ROOT
ATOM      1  N   UNL     1      -1.567   0.789   0.345  1.00  0.00    -0.346 N 
ATOM      2  C   UNL     1      -0.345   1.456  -0.234  1.00  0.00     0.327 C 
ATOM      3  N   UNL     1       0.790   0.789   0.345  1.00  0.00    -0.278 N 
ATOM      4  N   UNL     1      -0.345   2.678  -0.900  1.00  0.00    -0.346 N 
ATOM      5  C   UNL     1       2.012   1.456  -0.234  1.00  0.00     0.327 C 
ATOM      6  N   UNL     1       3.123   0.789   0.345  1.00  0.00    -0.278 N 
ATOM      7  N   UNL     1       2.012   2.678  -0.900  1.00  0.00    -0.346 N 
ATOM      8  C   UNL     1      -2.789   1.456  -0.234  1.00  0.00     0.062 C 
ATOM      9  C   UNL     1       0.790  -0.789   1.012  1.00  0.00     0.062 C 
ATOM     10  C   UNL     1       4.345   1.456  -0.234  1.00  0.00     0.062 C 
ENDROOT
TORSDOF 2
ENDMDL
