MODEL 1
REMARK VINA RESULT:   -7.8      0.000      0.000
REMARK  Name = omeprazole
REMARK  4 active torsions:
ROOT
ATOM      1  C   UNL     1      -2.789   1.567   0.345  1.00  0.00     0.076 C 
ATOM      2  C   UNL     1      -1.567   0.900  -0.234  1.00  0.00     0.040 C 
ATOM      3  C   UNL     1      -0.345   1.567   0.345  1.00  0.00     0.026 C 
ATOM      4  C   UNL     1      -0.345   2.900   1.234  1.00  0.00     0.002 C 
ATOM      5  C   UNL     1      -1.567   3.567   1.813  1.00  0.00     0.002 C 
ATOM      6  C   UNL     1      -2.789   2.900   1.234  1.00  0.00     0.026 C 
ATOM      7  S   UNL     1       1.123   0.789  -0.456  1.00  0.00    -0.089 SA
ATOM      8  C   UNL     1       2.234   1.789   0.456  1.00  0.00     0.162 C 
ATOM      9  N   UNL     1       3.456   1.122  -0.123  1.00  0.00    -0.281 N 
ATOM     10  C   UNL     1       4.678   1.789   0.456  1.00  0.00     0.233 C 
ATOM     11  O   UNL     1       5.789   1.345   0.123  1.00  0.00    -0.274 OA
ATOM     12  C   UNL     1       4.456   2.900   1.456  1.00  0.00     0.119 C 
ATOM     13  N   UNL     1       3.234   3.567   1.813  1.00  0.00    -0.343 N 
ATOM     14  C   UNL     1       2.123   2.900   1.234  1.00  0.00     0.127 C 
ENDROOT
TORSDOF 4
ENDMDL
