MODEL 1
REMARK VINA RESULT:  -10.5      0.000      0.000
REMARK  Name = penicillin
REMARK  4 active torsions:
REMARK  status: ('A' for Active; 'I' for Inactive)
ROOT
ATOM      1  C   UNL     1      -2.567   1.456   0.234  1.00  0.00     0.162 C 
ATOM      2  N   UNL     1      -1.345   0.789  -0.123  1.00  0.00    -0.346 N 
ATOM      3  C   UNL     1      -0.123   1.456   0.234  1.00  0.00     0.254 C 
ATOM      4  O   UNL     1       0.012   2.567   0.789  1.00  0.00    -0.268 OA
ATOM      5  C   UNL     1       1.099   0.678  -0.123  1.00  0.00     0.162 C 
ATOM      6  C   UNL     1       0.901  -0.789  -0.456  1.00  0.00     0.162 C 
ATOM      7  S   UNL     1      -0.789  -1.456   0.123  1.00  0.00    -0.089 SA
ATOM      8  C   UNL     1      -1.567  -0.567  -0.456  1.00  0.00     0.162 C 
ATOM      9  C   UNL     1       2.345   1.345   0.567  1.00  0.00     0.270 C 
ATOM     10  O   UNL     1       2.345   2.456   1.123  1.00  0.00    -0.266 OA
ATOM     11  O   UNL     1       3.456   0.678   0.234  1.00  0.00    -0.320 OA
ATOM     12  C   UNL     1      -2.789  -1.234  -0.901  1.00  0.00     0.077 C 
ATOM     13  C   UNL     1       1.901  -1.567  -1.123  1.00  0.00     0.077 C 
ATOM     14  N   UNL     1      -3.678   0.789  -0.456  1.00  0.00    -0.281 N 
ATOM     15  C   UNL     1      -4.901   1.456  -0.901  1.00  0.00     0.062 C 
ENDROOT
TORSDOF 4
ENDMDL
MODEL 2
REMARK VINA RESULT:   -9.8      2.123      4.567
REMARK  Name = penicillin
ROOT
ATOM      1  C   UNL     1      -2.678   1.567   0.345  1.00  0.00     0.162 C 
ATOM      2  N   UNL     1      -1.456   0.900  -0.234  1.00  0.00    -0.346 N 
ATOM      3  C   UNL     1      -0.234   1.567   0.345  1.00  0.00     0.254 C 
ATOM      4  O   UNL     1       0.123   2.678   0.900  1.00  0.00    -0.268 OA
ATOM      5  C   UNL     1       1.210   0.789  -0.234  1.00  0.00     0.162 C 
ATOM      6  C   UNL     1       1.012  -0.900  -0.567  1.00  0.00     0.162 C 
ATOM      7  S   UNL     1      -0.900  -1.567   0.234  1.00  0.00    -0.089 SA
ATOM      8  C   UNL     1      -1.678  -0.678  -0.567  1.00  0.00     0.162 C 
ATOM      9  C   UNL     1       2.456   1.456   0.678  1.00  0.00     0.270 C 
ATOM     10  O   UNL     1       2.456   2.567   1.234  1.00  0.00    -0.266 OA
ATOM     11  O   UNL     1       3.567   0.789   0.345  1.00  0.00    -0.320 OA
ATOM     12  C   UNL     1      -2.900  -1.345  -1.012  1.00  0.00     0.077 C 
ATOM     13  C   UNL     1       2.012  -1.678  -1.234  1.00  0.00     0.077 C 
ATOM     14  N   UNL     1      -3.789   0.900  -0.567  1.00  0.00    -0.281 N 
ATOM     15  C   UNL     1      -5.012   1.567  -1.012  1.00  0.00     0.062 C 
ENDROOT
TORSDOF 4
ENDMDL
