MODEL 1
REMARK VINA RESULT:  -11.2      0.000      0.000
REMARK  Name = sildenafil
REMARK  7 active torsions:
ROOT
ATOM      1  C   UNL     1      -4.123   2.456   0.789  1.00  0.00     0.076 C 
ATOM      2  C   UNL     1      -2.901   1.789  -0.234  1.00  0.00     0.040 C 
ATOM      3  C   UNL     1      -1.679   2.456   0.789  1.00  0.00     0.026 C 
ATOM      4  C   UNL     1      -1.679   3.789   1.812  1.00  0.00     0.002 C 
ATOM      5  C   UNL     1      -2.901   4.456   2.835  1.00  0.00     0.002 C 
ATOM      6  C   UNL     1      -4.123   3.789   1.812  1.00  0.00     0.026 C 
ATOM      7  N   UNL     1      -0.457   1.789  -0.234  1.00  0.00    -0.346 N 
ATOM      8  C   UNL     1       0.765   2.456   0.789  1.00  0.00     0.254 C 
ATOM      9  O   UNL     1       0.765   3.679   1.234  1.00  0.00    -0.268 OA
ATOM     10  C   UNL     1       1.987   1.679   1.234  1.00  0.00     0.162 C 
ATOM     11  N   UNL     1       3.209   2.346   0.789  1.00  0.00    -0.281 N 
ATOM     12  C   UNL     1       4.431   1.679  -0.234  1.00  0.00     0.233 C 
ATOM     13  O   UNL     1       5.543   2.123  -0.567  1.00  0.00    -0.274 OA
ATOM     14  C   UNL     1       4.209   0.346  -0.789  1.00  0.00     0.119 C 
ATOM     15  S   UNL     1       2.654  -0.346  -0.234  1.00  0.00    -0.089 SA
ENDROOT
TORSDOF 7
ENDMDL
MODEL 2
REMARK VINA RESULT:  -10.6      2.345      5.123
REMARK  Name = sildenafil
ROOT
ATOM      1  C   UNL     1      -4.234   2.567   0.900  1.00  0.00     0.076 C 
ATOM      2  C   UNL     1      -3.012   1.900  -0.345  1.00  0.00     0.040 C 
ATOM      3  C   UNL     1      -1.790   2.567   0.900  1.00  0.00     0.026 C 
ATOM      4  C   UNL     1      -1.790   3.900   2.145  1.00  0.00     0.002 C 
ATOM      5  C   UNL     1      -3.012   4.567   3.390  1.00  0.00     0.002 C 
ATOM      6  C   UNL     1      -4.234   3.900   2.145  1.00  0.00     0.026 C 
ATOM      7  N   UNL     1      -0.568   1.900  -0.345  1.00  0.00    -0.346 N 
ATOM      8  C   UNL     1       0.654   2.567   0.900  1.00  0.00     0.254 C 
ATOM      9  O   UNL     1       0.654   3.790   1.345  1.00  0.00    -0.268 OA
ATOM     10  C   UNL     1       1.876   1.790   1.345  1.00  0.00     0.162 C 
ATOM     11  N   UNL     1       3.098   2.457   0.900  1.00  0.00    -0.281 N 
ATOM     12  C   UNL     1       4.320   1.790  -0.345  1.00  0.00     0.233 C 
ATOM     13  O   UNL     1       5.432   2.234  -0.678  1.00  0.00    -0.274 OA
ATOM     14  C   UNL     1       4.098   0.457  -0.900  1.00  0.00     0.119 C 
ATOM     15  S   UNL     1       2.543  -0.457  -0.345  1.00  0.00    -0.089 SA
ENDROOT
TORSDOF 7
ENDMDL
