MODEL 1
REMARK VINA RESULT:   -9.7      0.000      0.000
REMARK  Name = warfarin
REMARK  5 active torsions:
ROOT
ATOM      1  C   UNL     1      -3.234   1.789   0.456  1.00  0.00     0.076 C 
ATOM      2  C   UNL     1      -2.012   1.122  -0.123  1.00  0.00     0.040 C 
ATOM      3  C   UNL     1      -0.790   1.789   0.456  1.00  0.00     0.026 C 
ATOM      4  C   UNL     1      -0.790   3.122   1.234  1.00  0.00     0.002 C 
ATOM      5  C   UNL     1      -2.012   3.789   1.813  1.00  0.00     0.002 C 
ATOM      6  C   UNL     1      -3.234   3.122   1.234  1.00  0.00     0.026 C 
ATOM      7  C   UNL     1       0.456   1.122  -0.123  1.00  0.00     0.162 C 
ATOM      8  C   UNL     1       1.678   1.789   0.456  1.00  0.00     0.270 C 
ATOM      9  O   UNL     1       1.678   2.900   1.012  1.00  0.00    -0.266 OA
ATOM     10  O   UNL     1       2.789   1.122  -0.123  1.00  0.00    -0.320 OA
ATOM     11  C   UNL     1       0.456  -0.234  -0.901  1.00  0.00     0.077 C 
ATOM     12  C   UNL     1       4.011   1.789   0.456  1.00  0.00     0.213 C 
ATOM     13  O   UNL     1      -4.456   1.122  -0.123  1.00  0.00    -0.357 OA
ENDROOT
TORSDOF 5
ENDMDL
MODEL 2
REMARK VINA RESULT:   -9.2      1.890      3.678
REMARK  Name = warfarin
ROOT
ATOM      1  C   UNL     1      -3.345   1.900   0.567  1.00  0.00     0.076 C 
ATOM      2  C   UNL     1      -2.123   1.233  -0.234  1.00  0.00     0.040 C 
ATOM      3  C   UNL     1      -0.901   1.900   0.567  1.00  0.00     0.026 C 
ATOM      4  C   UNL     1      -0.901   3.233   1.345  1.00  0.00     0.002 C 
ATOM      5  C   UNL     1      -2.123   3.900   2.146  1.00  0.00     0.002 C 
ATOM      6  C   UNL     1      -3.345   3.233   1.345  1.00  0.00     0.026 C 
ATOM      7  C   UNL     1       0.567   1.233  -0.234  1.00  0.00     0.162 C 
ATOM      8  C   UNL     1       1.789   1.900   0.567  1.00  0.00     0.270 C 
ATOM      9  O   UNL     1       1.789   3.011   1.123  1.00  0.00    -0.266 OA
ATOM     10  O   UNL     1       2.900   1.233  -0.234  1.00  0.00    -0.320 OA
ATOM     11  C   UNL     1       0.567  -0.345  -1.012  1.00  0.00     0.077 C 
ATOM     12  C   UNL     1       4.122   1.900   0.567  1.00  0.00     0.213 C 
ATOM     13  O   UNL     1      -4.567   1.233  -0.234  1.00  0.00    -0.357 OA
ENDROOT
TORSDOF 5
ENDMDL
